Circuit: * C:\Users\Marco\Desktop\Marco\Programmazione\C\EsPoli\LTSpice\Esercitazioni\2\main.asc

Fatal Error: No analysis request found.
