Circuit: * cicuito da analizzare epr la scimmia

Direct Newton iteration for .op point succeeded.

Date: Sat Dec 31 16:12:22 2022
Total elapsed time: 0.013 seconds.

tnom = 27
temp = 27
method = trap
totiter = 3
traniter = 0
tranpoints = 0
accept = 0
rejected = 0
matrix size = 5
fillins = 1
solver = Normal
Matrix Compiler1: 204 bytes object code size
Matrix Compiler2: 303 bytes object code size
