Circuit: *www

Direct Newton iteration for .op point succeeded.

Date: Thu Dec 21 17:00:41 2023
Total elapsed time: 0.016 seconds.

tnom = 27
temp = 27
method = trap
totiter = 3
traniter = 0
tranpoints = 0
accept = 0
rejected = 0
matrix size = 7
fillins = 1
solver = Normal
Matrix Compiler1: 322 bytes object code size
Matrix Compiler2: 489 bytes object code size
