Circuit: *www

Direct Newton iteration for .op point succeeded.

Date: Thu Dec 21 17:02:42 2023
Total elapsed time: 0.017 seconds.

tnom = 27
temp = 27
method = trap
totiter = 3
traniter = 0
tranpoints = 0
accept = 0
rejected = 0
matrix size = 5
fillins = 0
solver = Normal
Matrix Compiler1: 150 bytes object code size
Matrix Compiler2: 309 bytes object code size
