Circuit: *www

Direct Newton iteration for .op point succeeded.

Date: Thu Dec 21 16:59:36 2023
Total elapsed time: 0.019 seconds.

tnom = 27
temp = 27
method = trap
totiter = 3
traniter = 0
tranpoints = 0
accept = 0
rejected = 0
matrix size = 6
fillins = 0
solver = Normal
Matrix Compiler1: 236 bytes object code size
Matrix Compiler2: 390 bytes object code size
