Circuit: *aaaa

Ignoring empty pin current: Ix(oa1:1)
Ignoring empty pin current: Ix(oa1:2)
Direct Newton iteration for .op point succeeded.

Date: Thu Feb 23 10:39:10 2023
Total elapsed time: 0.009 seconds.

tnom = 27
temp = 27
method = trap
totiter = 3
traniter = 0
tranpoints = 0
accept = 0
rejected = 0
matrix size = 6
fillins = 1
solver = Normal
Matrix Compiler1: 218 bytes object code size
Matrix Compiler2: 382 bytes object code size
