Circuit: * aaa

Ignoring empty pin current: Ix(oa1:1)
Ignoring empty pin current: Ix(oa1:2)
Ignoring empty pin current: Ix(oa2:1)
Ignoring empty pin current: Ix(oa2:2)
Direct Newton iteration for .op point succeeded.

Date: Wed Jan 04 17:33:47 2023
Total elapsed time: 0.019 seconds.

tnom = 27
temp = 27
method = trap
totiter = 3
traniter = 0
tranpoints = 0
accept = 0
rejected = 0
matrix size = 10
fillins = 2
solver = Normal
Matrix Compiler1: 400 bytes object code size
Matrix Compiler2: 608 bytes object code size
