Circuit: * C:\Users\Marco\Desktop\Marco\Programmazione\C\EsPoli\LTSpice\Esercitazioni\Generatori Controllati\Draft1.asc

Direct Newton iteration for .op point succeeded.

Date: Thu Feb 16 10:11:58 2023
Total elapsed time: 0.041 seconds.

tnom = 27
temp = 27
method = trap
totiter = 3
traniter = 0
tranpoints = 0
accept = 0
rejected = 0
matrix size = 5
fillins = 1
solver = Normal
Matrix Compiler1: 150 bytes object code size
Matrix Compiler2: 341 bytes object code size
