Circuit: ** dsd

Direct Newton iteration for .op point succeeded.

Date: Thu Feb 16 10:12:50 2023
Total elapsed time: 0.012 seconds.

tnom = 27
temp = 27
method = trap
totiter = 3
traniter = 0
tranpoints = 0
accept = 0
rejected = 0
matrix size = 5
fillins = 1
solver = Normal
Matrix Compiler1: 150 bytes object code size
Matrix Compiler2: 341 bytes object code size
