Circuit: *www

Direct Newton iteration for .op point succeeded.

Date: Sat Feb 18 12:32:08 2023
Total elapsed time: 0.013 seconds.

tnom = 27
temp = 27
method = trap
totiter = 3
traniter = 0
tranpoints = 0
accept = 0
rejected = 0
matrix size = 5
fillins = 0
solver = Normal
Matrix Compiler1: 186 bytes object code size
Matrix Compiler2: 335 bytes object code size
