Circuit: *www

Direct Newton iteration for .op point succeeded.

Date: Wed Dec 20 22:30:04 2023
Total elapsed time: 0.015 seconds.

tnom = 27
temp = 27
method = trap
totiter = 3
traniter = 0
tranpoints = 0
accept = 0
rejected = 0
matrix size = 5
fillins = 0
solver = Normal
Matrix Compiler1: 222 bytes object code size
Matrix Compiler2: 317 bytes object code size
