Circuit: **aaaa

Direct Newton iteration for .op point succeeded.

Date: Sat Jan 21 11:50:02 2023
Total elapsed time: 0.013 seconds.

tnom = 27
temp = 27
method = trap
totiter = 3
traniter = 0
tranpoints = 0
accept = 0
rejected = 0
matrix size = 3
fillins = 1
solver = Normal
Matrix Compiler1: 104 bytes object code size
Matrix Compiler2: 189 bytes object code size
