Circuit: *aa

Direct Newton iteration for .op point succeeded.

Date: Sun Jan 22 12:23:38 2023
Total elapsed time: 0.014 seconds.

tnom = 27
temp = 27
method = trap
totiter = 3
traniter = 0
tranpoints = 0
accept = 0
rejected = 0
matrix size = 6
fillins = 0
solver = Normal
Matrix Compiler1: 146 bytes object code size
Matrix Compiler2: 334 bytes object code size
