Circuit: * aaa

Direct Newton iteration for .op point succeeded.

Date: Fri Jan 20 11:11:39 2023
Total elapsed time: 0.004 seconds.

tnom = 27
temp = 27
method = trap
totiter = 3
traniter = 0
tranpoints = 0
accept = 0
rejected = 0
matrix size = 6
fillins = 0
solver = Normal
Matrix Compiler1: 128 bytes object code size
Matrix Compiler2: 340 bytes object code size
